%nproc=4
%mem=60gb
#B3LYP/6-31G* fopt test

Sugars/Base-Fructuose.xyz

0 1
 C     0.000000     0.000000     0.000000
 O     0.000000     0.000000     1.413516
 H     0.927487     0.000000     1.705916
 H     0.518025    -0.897246    -0.348146
 H     0.517855     0.896952    -0.346765
 C    -1.421472     0.000000    -0.528838
 O    -2.388894    -0.031101     0.233292
 C    -1.598381     0.004915    -2.046186
 C    -0.312426    -0.195902    -2.862275
 C    -0.494879    -0.219473    -4.391388
 C     0.830614    -0.445708    -5.119133
 H     1.256558    -1.422948    -4.868705
 H     1.558462     0.338284    -4.893094
 O     0.593408    -0.423171    -6.523080
 H     1.449268    -0.574656    -6.958995
 H    -2.331590    -0.772020    -2.287782
 O    -2.174011     1.250380    -2.420629
 H    -1.506963     1.942496    -2.271473
 H     0.098732    -1.168576    -2.562645
 O     0.661927     0.780142    -2.505325
 H     1.539004     0.420454    -2.719826
 H    -1.070281    -1.099481    -4.699752
 O    -1.046239     1.020107    -4.834945
 H    -1.899034     1.146066    -4.384966


