%nproc=4
%mem=60gb
#B3LYP/6-311G** fopt test freq

Sugars/S-R-S-Fructuose.xyz

0 1
 C    -0.771179     0.461937     0.549594
 O    -0.329034    -0.154338     1.739466
 H    -0.334186     0.517405     2.426604
 H    -0.174291     1.341302     0.262646
 H    -1.813957     0.805070     0.600874
 C    -0.650479    -0.509351    -0.604669
 O    -0.192792    -1.621763    -0.497637
 C    -1.129872    -0.003633    -1.971031
 C    -0.045103    -0.272112    -3.026879
 C    -0.524336    -0.032765    -4.458993
 C     0.568236    -0.188858    -5.502139
 H     0.993114    -1.201866    -5.474346
 H     1.352257     0.542937    -5.291714
 O    -0.076163     0.066615    -6.757285
 H     0.597782     0.202314    -7.428176
 H    -2.004252    -0.624364    -2.232370
 O    -1.503969     1.361745    -1.859792
 H    -1.505736     1.726225    -2.758408
 H     0.200675    -1.334123    -2.935237
 O     1.116876     0.534740    -2.763577
 H     1.759531    -0.021611    -2.319466
 H    -1.317026    -0.761021    -4.686628
 O    -1.067358     1.291585    -4.557517
 H    -1.287686     1.432160    -5.486046







