%nproc=4
%mem=60gb
#B3LYP/6-31G* fopt test

AsymmetricEnantiomers/r-2-chlorobutane_rotated.xyz

0 1
C    -0.395447      0.375985       0.376133       
C    -0.425447      0.400985       1.92613        
H    0.0845528      1.30399        2.29913        
H    0.0865528      -0.485015      2.33313        
H    -1.46345       0.409985       2.29313        
Cl   1.29155        0.422985       -0.161867      
H    -0.895447      1.28099        -0.00586719    
C    -1.11045       -0.887015      -0.177867      
H    -0.583447      -1.79001       0.172133       
C    -1.16945       -0.895015      -1.72787       
H    -2.14245       -0.919015      0.212133       
H    -0.157447      -0.916015      -2.16087       
H    -1.69345       0.000985351    -2.09587       
H    -1.71345       -1.78701       -2.07887       


