%nproc=4
%mem=60gb
#B3LYP/6-31G* fopt test

AsymmetricEnantiomers/s-2-chlorobutane_tmp.xyz

0 1
C	-0.269638	0.265245	0.544028
C	-1.73932	0.0970195	1.00854
H	-2.31175	1.01206	0.79047
H	-1.78324	-0.0913601	2.09299
H	-2.21217	-0.747224	0.483335
H	0.174755	1.12673	1.0692
Cl	-0.258098	0.624011	-1.19023
C	0.562844	-1.01189	0.843196
H	0.497861	-1.24202	1.91992
C	2.05741	-0.839079	0.465766
H	0.140915	-1.86397	0.284099
H	2.49603	0.00757828	1.01496
H	2.17294	-0.658243	-0.614036
H	2.61836	-1.75205	0.724445


