%nproc=4
%mem=60gb
#B3LYP/6-31G* fopt test

AsymmetricEnantiomers/s-2-chlorobutane.xyz

0 1
C		0.502		-0.048		0.364
C		0.539		-0.061		1.914
H		1.066		0.831		2.287
H		1.066		-0.956		2.281
H		-0.484		-0.061		2.321
H		1.536		-0.029		-0.018
Cl		-0.301		1.436		-0.174
C		-0.234		-1.299		-0.190
H		0.254		-2.208		0.200
C		-0.211		-1.354		-1.740
H		-1.280		-1.294		0.160
H		0.826		-1.360		-2.108
H		-0.735		-0.488		-2.173
H		-0.712		-2.271		-2.091


