%nproc=4
%mem=60gb
#B3LYP/6-31G* fopt test freq

NeoConformation/tetramethylsilane.xyz

0 1
Si         0.00000        0.00000        0.00000
C          1.09339        1.09339        1.09339
H          1.73621        1.73621        0.49667
H          0.49667        1.73621        1.73621
H          1.73621        0.49667        1.73621
C         -1.09339       -1.09339        1.09339
H         -0.49667       -1.73621        1.73621
H         -1.73621       -0.49667        1.73621
H         -1.73621       -1.73621        0.49667
C         -1.09339        1.09339       -1.09339
H         -1.73621        0.49667       -1.73621
H         -1.73621        1.73621       -0.49667
H         -0.49667        1.73621       -1.73621
C          1.09339       -1.09339       -1.09339
H          0.49667       -1.73621       -1.73621
H          1.73621       -0.49667       -1.73621
H          1.73621       -1.73621       -0.49667


