%nproc=4
%mem=60gb
#B3LYP/6-31G* fopt test freq

IsomerC6H14/2-methyl-pentane.xyz

0 1
6	2.830906	-0.225823	0.138029
1	3.675292	0.415128	-0.165358
1	2.88306	-0.35794	1.232675
1	2.974407	-1.21729	-0.325191
6	-1.426204	1.376214	0.190784
1	-0.716985	2.146948	-0.152083
1	-2.434679	1.67913	-0.13972
1	-1.420315	1.374645	1.296473
6	1.486248	0.380148	-0.272906
1	1.390823	1.38723	0.1705
1	1.460219	0.517736	-1.370856
6	0.301726	-0.493989	0.150864
1	0.27666	-0.566265	1.257504
6	-1.071934	-0.015903	-0.344548
1	-1.030509	0.039102	-1.45134
6	-2.157469	-1.026617	0.042023
1	-1.930584	-2.030818	-0.355164
1	-2.233799	-1.106949	1.141568
1	-3.145462	-0.721492	-0.343289
1	0.472243	-1.523348	-0.221194
			
			


