%nproc=4
%mem=60gb
#B3LYP/6-31G* fopt test

IsomerC6H14/2,2-dimethyl-butane.xyz

0 1
6	1.893379	-1.079391	0.0
6	1.170971	0.27165		0.0
6	-0.372993	0.221026	0.0
6	-0.895006	1.665926	0.0
6	-0.895006	-0.495598	1.254341
6	-0.895006	-0.495598	-1.254341
1	-1.999163	1.686633	0.0
1	2.986011	-0.929239	0.0
1	-0.509746	-0.015756	2.171955
1	-0.509746	-0.015756	-2.171955
1	-0.598905	-1.55793	1.27252
1	-0.598905	-1.55793	-1.27252
1	-1.998194	-0.45675	1.288967
1	-1.998194	-0.45675	-1.288967
1	1.643332	-1.677483	0.89165
1	1.643332	-1.677483	-0.89165
1	1.494275	0.853305	0.885165
1	1.494275	0.853305	-0.885165
1	-0.543203	2.211874	0.89329
1	-0.543203	2.211874	-0.89329
			


