%nproc=4
%mem=60gb
#B3LYP/6-31G* fopt test

RotationSameMolecule/Tetrabenzoporphyrin_rotated02.xyz

0 1
C       -1.72252        2.20555        3.33926
C       -0.65221        1.64098        3.98297
C      0.0614745       0.841596        2.98546
C       -1.66182        1.75061        1.94904
N      -0.582771       0.943958        1.79691
C       -2.59156        2.10576       0.933555
C       -2.55661        1.67882      -0.423514
N       -1.62994       0.859766      -0.980271
C       -1.95192       0.699365         -2.288
C       -3.47831        2.04177       -1.39355
C       -3.09926         1.4278       -2.56232
C       -1.23889     -0.0852568       -3.23725
C     -0.0614745      -0.841596       -2.98546
N       0.582771      -0.943958       -1.79691
C        1.72252       -2.20555       -3.33926
C        0.65221       -1.64098       -3.98297
C        2.55661       -1.67882       0.423514
N        1.62994      -0.859766       0.980271
C        1.95192      -0.699365          2.288
C        3.09926        -1.4278        2.56232
C        3.47831       -2.04177        1.39355
C        1.23889      0.0852568        3.23725
C        2.59156       -2.10576      -0.933555
C        1.66182       -1.75061       -1.94904
C       -2.62046        3.03763        4.00837
C      -0.410551        1.87193        5.33745
H       -3.40077        2.76384        1.22694
H       -0.82747       0.436478      -0.497655
C       -4.61099        2.85911       -1.33303
C       -3.82935        1.59304       -3.74313
H       -1.62471      -0.112978       -4.24935
C        2.62046       -3.03763       -4.00837
C       0.410551       -1.87193       -5.33745
H        0.82747      -0.436478       0.497655
C        3.82935       -1.59304        3.74313
C        4.61099       -2.85911        1.33303
H        1.62471       0.112978        4.24935
H        3.40077       -2.76384       -1.22694
C       -5.36246        3.04137       -2.50737
C       -4.97291        2.41038        -3.7085
C         2.4018       -3.28827       -5.37451
C        1.29934       -2.70674       -6.03755
C        4.97291       -2.41038         3.7085
C        5.36246       -3.04137        2.50737
C        -2.4018        3.28827        5.37451
C       -1.29934        2.70674        6.03755
H       -3.46338        3.48078        3.49644
H       0.435068         1.4244        5.84103
H       -4.91108        3.34335      -0.413957
H       -3.53264        1.11058       -4.66424
H        3.46338       -3.48078       -3.49644
H      -0.435068        -1.4244       -5.84103
H        3.53264       -1.11058        4.66424
H        4.91108       -3.34335       0.413957
H       -6.24414        3.66871       -2.49021
H       -5.55747        2.55646       -4.60748
H        3.08142        -3.9296       -5.91995
H        1.13761       -2.90428       -7.08899
H        5.55747       -2.55646        4.60748
H        6.24414       -3.66871        2.49021
H       -3.08142         3.9296        5.91995
H       -1.13761        2.90428        7.08899


