%nproc=4
%mem=60gb
#B3LYP/6-31G* fopt test

SymmetricEnantiomers/s-tmp_rotated.xyz

0 1
C    0.750985       0.215834       -0.663502      
F    1.31443        -0.823457      -1.33382       
Br   1.59954        0.391524       1.07743        
I    -1.28267       -0.152688      -0.406289      
H    0.968779       1.13518        -1.21214       


