23
epoxidebackback HEAT OF FORMATION = -60.59402 KCAL = -253.52519 KJ
C               -1.6644      0.9293     -0.3106
O               -2.0104      0.9294      1.0832
C               -1.0356      1.8849      0.6553
H               -2.4586      1.2994     -0.9905
C               -0.9449     -0.2426     -0.8693
C                0.3905      1.7386      1.1225
H               -1.3621      2.9439      0.6843
C                0.3656     -2.4110     -2.0232
C               -0.2278     -0.0755     -2.0562
C               -1.0074     -1.4971     -0.2637
C               -0.3518     -2.5783     -0.8439
C                0.4276     -1.1592     -2.6279
H               -0.1783      0.9107     -2.5314
H               -1.5681     -1.6301      0.6687
H               -0.4018     -3.5630     -0.3679
H                0.9943     -1.0260     -3.5555
H                0.8821     -3.2636     -2.4762
O                1.3692      2.1717      0.5474
O                0.5315      1.0998      2.3175
C                1.8320      0.9288      2.8413
H                2.4646      0.3318      2.1759
H                1.6379      0.3890      3.7714
H                2.3162      1.8891      3.0488
